LAMMPS (2 Aug 2023 - Update 3)
#--------------------------- Simulation variables -----------------------------#

variable          T equal 1000
variable          output      equal 100
variable          dumpstep    equal 500
variable          runstep     equal 400000
variable          eqstep      equal 1000
variable          nrestart    equal 50000

#---------------------------- Atomic setup ------------------------------------#
units            metal
atom_style       atomic
boundary         p p p
read_data        ./Ef_0000_HZnAsO_LiPPdO_486.data
Reading data file ...
  orthogonal box = (0 0 0) to (10.621182 11.374994 20.176003)
  reading atoms ...
  192 atoms

pair_style       e3gnn
PairE3GNN using device : CUDA
pair_coeff       * * ./deployed_serial.pt Li P Pd O
Chemical specie 'Li' is assigned to type 1
Chemical specie 'P' is assigned to type 2
Chemical specie 'Pd' is assigned to type 3
Chemical specie 'O' is assigned to type 4
from sevenn version '0.10.1' single precision model trained at 2024-11-27 is loaded

timestep         0.001

group            Li    type 1
56 atoms in group Li
group            P    type 2
24 atoms in group P
group            Pd    type 3
16 atoms in group Pd
group            O     type 4
96 atoms in group O

#----------------------------- Run simulation ---------------------------------#
thermo           100
thermo_style     custom step time tpcpu pe ke etotal vol press temp

fix              f1 all nvt temp 1000 1000 0.1
fix              comfix all momentum 1 linear 1 1 1
velocity         all create 1000 598173 dist gaussian mom yes

# MSD computations
compute          Li_msd1 Li msd
fix              fmsd1   Li ave/time 500 1 500 c_Li_msd1[1] c_Li_msd1[2] c_Li_msd1[3] c_Li_msd1[4] file 01_msd_output.txt

compute          Li_msd2 Li msd com yes
fix              fmsd2 Li ave/time 500 1 500 c_Li_msd2[1] c_Li_msd2[2] c_Li_msd2[3] c_Li_msd2[4] file 02_msd_output.txt

compute          Li_msd3 Li msd average yes
fix              fmsd3 Li ave/time 500 1 500 c_Li_msd3[1] c_Li_msd3[2] c_Li_msd3[3] c_Li_msd3[4] file 03_msd_output.txt

compute          Li_msd4 Li msd com yes average yes
fix              fmsd4 Li ave/time 500 1 500 c_Li_msd4[1] c_Li_msd4[2] c_Li_msd4[3] c_Li_msd4[4] file 04_msd_output.txt

compute          B_msd   P msd
fix              fmsd5   P ave/time 500 1 500 c_B_msd[1] c_B_msd[2] c_B_msd[3] c_B_msd[4] file P_msd_output.txt

compute          C_msd   Pd msd
fix              fmsd6   Pd ave/time 500 1 500 c_C_msd[1] c_C_msd[2] c_C_msd[3] c_C_msd[4] file Pd_msd_output.txt

compute          O_msd   O msd
fix              fmsd7   O ave/time 500 1 500 c_O_msd[1] c_O_msd[2] c_O_msd[3] c_O_msd[4] file O_msd_output.txt

shell           mkdir restart_bins
restart         50000 ./restart_bins/restart.*.bin

# Equilibration
dump            mydump1 all custom 500 eqdump.traj id type x y z fx fy fz
dump_modify     mydump1 sort id
run             1000
Generated 0 of 6 mixed pair_coeff terms from geometric mixing rule
Step          Time          T/CPU          PotEng         KinEng         TotEng         Volume         Press           Temp
0   0              0             -1145.9131      24.688688     -1121.2244      2437.5816      10821.26       1000
Averages over the last 6 of 11 rows, steps 500 to 1000:
PotEng KinEng TotEng Volume Press Temp
-1124.23 25.5311 -1098.7 2437.58 3492.64 1034.12
Loop time of 90.3327 on 1 procs for 1000 steps with 192 atoms

undump          mydump1

# Main
dump            mydump2 all custom 500 dump.traj id type x y z fx fy fz
dump_modify     mydump2 sort id
run             400000
Generated 0 of 6 mixed pair_coeff terms from geometric mixing rule
Step          Time          T/CPU          PotEng         KinEng         TotEng         Volume         Press           Temp
1000   1              0             -1123.291       25.462198     -1097.8288      2437.5816      8377.6678      1031.3306
Averages over the last 2001 of 4001 rows, steps 201000 to 401000:
PotEng KinEng TotEng Volume Press Temp
-1147.34 24.7059 -1122.63 2437.58 11325 1000.7
Loop time of 33551.8 on 1 procs for 400000 steps with 192 atoms
